&RUN
iexpnr     =  001
lwarmstart =  .false.
runtime    =  14400 
trestart   =  36000 
dtmax      =  2
ladaptive  = .true.
courant    =  1.
irandom    =  43
randthl    =  0.1
randqt     =  2.5e-5
nsv        =  20 
timeav_glob= 60. 
/

&DOMAIN
imax       = 64 
jtot       = 64 
kmax       = 128 

xsize      = 6400.
ysize      = 6400.

xlat       =  00.0
xlon       =  0.0
xday       =  263.
xtime      =  12.00
/
&NAMSURFACE
lmostlocal = .true.
z0mav      = 0.1
z0hav      = 0.1
/

&PHYSICS
z0         =  0.1
ustin      =  0.1
ps         =  100000.00
thls       =  300
wtsurf     =  0.15
wqsurf     =  0.1e-3
wsvsurf(1) =  1.0
wsvsurf(2) =  0.0
wsvsurf(3) =  0.0
wsvsurf(4) =  0.0005 
wsvsurf(5) =  0.0
wsvsurf(6) =  0.0
wsvsurf(7) =  0.0
wsvsurf(8) =  0.0
wsvsurf(9) =  0.0
wsvsurf(10) = 0.65
wsvsurf(11) = 0.0
wsvsurf(12) = 0.0
wsvsurf(13) = 0.0
wsvsurf(14) = 0.0
wsvsurf(15) = 0.0
wsvsurf(16) = 0.0
wsvsurf(17) = 0.0
wsvsurf(18) = 0.0
wsvsurf(19) = 0.0
wsvsurf(20) = 0.0


lmoist     =  .true.
isurf      =  4
irad       =  0
timerad    =  3600
lcoriol    =  .true.
/

&DYNAMICS
llsadv     =  .false.
lqlnr      =  .false.
cu         =   0.
cv         =   0.

iadv_mom    =  5
iadv_tke    =  5
iadv_thl    =  5
iadv_qt     =  5
iadv_sv     =  100*7
/

&NAMCHECKSIM
tcheck      =  0
/

&NAMSAMPLING
lsampup     = .false.
dtav        = 60
timeav      = 120
/
&NAMTIMESTAT
ltimestat   = .true.
iblh_meth   = 2
iblh_var    = -1
dtav        = 60
/
&NAMCROSSSECTION
lcross      = .false.
dtav        = 60
/
&NAMGENSTAT
lstat       = .true.
dtav        = 60
/
&NAMFIELDDUMP
lfielddump  = .false.
dtav        = 4
ldiracc     = .false.
/
&NAMSTATTEND
dtav        = 60
ltend       = .false.
/
&NAMNETCDFSTATS
lnetcdf     = .false.
/
&NAMNETCDFMOVIE
lnetcdfmovie = .false.
/
&NAMCHEM
lchem       = .true.
tnor        = 25
firstchem   = 1
lastchem    = 20
ldiuvar     = .false. 
lchconst    = .false.
h_ref       = 12.
lcloudKconst= .false.
t_ref	    = 300.
p_ref	    = 100000.
q_ref	    = 5.0e-3
lchmovie    = .false.
dtchmovie   = 60.
lsegr       = .true.
/

