&RUN
runtime = 2.5
/

&OUTPUT
tfielddump = 2.
tstatsdump = 2.
/