&RUN
runtime = 2.5
/

&OUTPUT
tfielddump = 1.
tstatsdump = 1.
/