&RUN
runtime = 1.
/

&OUTPUT
tfielddump = 1.
tstatsdump = 1.
/