&RUN
runtime = 1.5
/

&OUTPUT
tstatsdump = 1.5
tsample      = 1.
/

&DRIVER
driverstore  = 11
/
