 &RUN
 IEXPNR  =          22,
 LWARMSTART      = T,
 LSTRATSTART     = F,
 STARTFILE       = file_D7jYEh.dat                                                                           ,
 RUNTIME =   61.1556710000000     ,
 DTMAX   =   72.5936250000000     ,
 TRESTART        =   38.1050040000000     ,
 LADAPTIVE       = T,
 IRANDOM =         392,
 RANDU   =   8.45537500000000     ,
 RANDTHL =   98.4016860000000     ,
 RANDQT  =   96.2075450000000     ,
 KRAND   =         937,
 COURANT =   1.65210200000000     ,
 DIFFNR  =   60.9905730000000     ,
 AUTHOR  = THJ0AIbT                                                                        ,
 LIBM    = F,
 LLES    = F,
 LPER2INOUT      = T,
 LWALLDIST       = T,
 LREADMEAN       = F,
 NPROCX  =           1,
 NPROCY  =           1,
 LRANDOMIZE      = F,
 RUNMODE =        1001,
 LJSON_INPUT     = F
 /
 &DOMAIN
 ITOT    =          16,
 JTOT    =          16,
 KTOT    =          32,
 XLEN    =   100.000000000000     ,
 YLEN    =   100.000000000000     ,
 XLAT    =   47.7409540000000     ,
 XLON    =  -55.9243330000000     ,
 XDAY    =   210.791187000000     ,
 XTIME   =   20.4114290000000     ,
 KSP     =         182
 /
 &PHYSICS
 PS      =   52.0694160000000     ,
 IGRW_DAMP       =           3,
 LMOIST  = F,
 LCORIOL = T,
 LBUOYANCY       = F,
 LTEMPEQ = F,
 LPROFFORC       = T,
 IFIXUINF        =         173,
 LVINF   = T,
 TSCALE  =   23.6666730000000     ,
 DPDX    =   27.5671760000000     ,
 LUOUTFLOWR      = T,
 LVOUTFLOWR      = F,
 LUVOLFLOWR      = F,
 LVVOLFLOWR      = T,
 UFLOWRATE       =   93.5364900000000     ,
 VFLOWRATE       =   5.33791200000000     ,
 LNUDGE  = F,
 LNUDGEVEL       = T,
 TNUDGE  =   34.5438870000000     ,
 NNUDGE  =         972,
 LTIMEDEPSURF    = F,
 NTIMEDEPSURF    =         798,
 LTIMEDEPNUDGE   = F,
 NTIMEDEPNUDGE   =         162,
 LTIMEDEPLW      = F,
 NTIMEDEPLW      =         285,
 LTIMEDEPSW      = T,
 NTIMEDEPSW      =          57
 /
 &DYNAMICS
 LQLNR   = T,
 IPOISS  =           0,
 IADV_MOM        =           1,
 IADV_TKE        =           1,
 IADV_THL        =           1,
 IADV_QT =           7,
 IADV_SV = 95*7, 5*1
 /
 &BC
 BCXM    =           1,
 BCXT    =           1,
 BCXQ    =           1,
 BCXS    =           1,
 BCYM    =           1,
 BCYT    =           1,
 BCYQ    =           1,
 BCYS    =           1,
 BCTOPM  =           1,
 BCTOPT  =           1,
 BCTOPQ  =           1,
 BCTOPS  =           1,
 BCBOTM  =           2,
 BCBOTT  =           1,
 BCBOTQ  =           1,
 BCBOTS  =           1,
 BCTFXM  =   63.5262920000000     ,
 BCTFXP  =   91.3368780000000     ,
 BCTFYM  =   81.8253760000000     ,
 BCTFYP  =   34.4339960000000     ,
 BCTFZ   =   22.4436580000000     ,
 BCQFXM  =   86.2688340000000     ,
 BCQFXP  =   29.1881920000000     ,
 BCQFYM  =   25.2141860000000     ,
 BCQFYP  =   44.4352200000000     ,
 BCQFZ   =   71.4420580000000     ,
 WTTOP   =   3.51655800000000     ,
 THL_TOP =   45.0626800000000     ,
 QT_TOP  =   26.0777870000000     ,
 QTS     =   19.5315600000000     ,
 WSVSURFDUM      = 99*0.000000000000000E+000  ,
 WSVTOPDUM       = 99*0.000000000000000E+000  ,
 WTSURF  =   20.1919830000000     ,
 WQSURF  =   72.2542340000000     ,
 THLS    =   55.3376020000000     ,
 Z0      =   48.2749900000000     ,
 Z0H     =   50.5927650000000     ,
 BCZP    =           1,
 DS      =   79.4639800000000     
 /
 &INLET
 UINF    =  0.000000000000000E+000,
 VINF    =  0.000000000000000E+000,
 DI      =   65.8707980000000     ,
 DTI     =   38.4829380000000     ,
 INLETAV =   44.0000000000000     ,
 LINLETRA        = F,
 LSTOREPLANE     = T,
 LREADMINL       = T,
 LFIXINLET       = F,
 LFIXUTAUIN      = T,
 LWALLFUNC       = T
 /
 &DRIVER
 IDRIVER =         510,
 TDRIVERSTART    =   37.4434550000000     ,
 DRIVERJOBNR     =         286,
 DTDRIVER        =   33.4286320000000     ,
 DRIVERSTORE     =          -1,
 IPLANE  =         109,
 IANGLEDEG       =   6.00000000000000     ,
 LCHUNKREAD      = T,
 CHUNKREAD_SIZE  =         179
 /
 &WALLS
 NBLOCKS =         784,
 NFCTS   =          14,
 IWALLMOM        =         217,
 IWALLTEMP       =         360,
 IWALLMOIST      =         948,
 IWALLSCAL       =         570,
 NSOLPTS_U       =         565,
 NSOLPTS_V       =         827,
 NSOLPTS_W       =         940,
 NSOLPTS_C       =         926,
 NBNDPTS_U       =         430,
 NBNDPTS_V       =         785,
 NBNDPTS_W       =         324,
 NBNDPTS_C       =         849,
 NFCTSECS_U      =         974,
 NFCTSECS_V      =         811,
 NFCTSECS_W      =         844,
 NFCTSECS_C      =         877,
 LBOTTOM = F,
 LNOREC  = F,
 PRANDTLTURB     =   17.7159300000000     ,
 FKAR    =   68.2637850000000     ,
 LWRITEFAC       = T,
 DTFAC   =   75.4251290000000     
 /
 &ENERGYBALANCE
 LEB     = F,
 LWRITEEBFILES   = F,
 LPERIODICEBCORR = F,
 SINKBASE        =          39,
 LCONSTW = F,
 DTEB    =   10.0000000000000     ,
 BLDT    =  0.000000000000000E+000,
 FLRT    =  0.000000000000000E+000,
 WSOIL   =   28.0657190000000     ,
 WGRMAX  =   37.3576920000000     ,
 WWILT   =   76.1339760000000     ,
 WFC     =   35.9762990000000     ,
 SKYLW   =  0.000000000000000E+000,
 GRLAI   =   2.00000000000000     ,
 RSMIN   =   22.3775710000000     ,
 NFACLYRS        =         710,
 LFACTLYRS       = F,
 LVFSPARSE       = T,
 NNZ     =         630,
 FRACTION        =   49.0291180000000     
 /
 &SCALARS
 LREADSCAL       = T,
 LSCASRC = T,
 LSCASRCL        = F,
 LSCASRCR        = F,
 NSV     =          95,
 NSCASRC =         971,
 NSCASRCL        =         105
 /
 &CHEMISTRY
 LCHEM   = T,
 K1      =   84.1924490000000     ,
 JNO2    =   791.000000000000     
 /
 &OUTPUT
 LFIELDDUMP      = F,
 TFIELDDUMP      =   81.4678050000000     ,
 FIELDVARS       = ylcfSzbP                                          ,
 LTDUMP  = T,
 LYDUMP  = F,
 LYTDUMP = T,
 LXYDUMP = F,
 LXYTDUMP        = F,
 LMINTDUMP       = T,
 LTKEDUMP        = T,
 SLICEVARS       = T4ant5MQ                                          ,
 LKSLICEDUMP     = F,
 KSLICE  =         421,
 LISLICEDUMP     = T,
 ISLICE  =         482,
 LJSLICEDUMP     = F,
 JSLICE  =         515,
 TSTATSDUMP      =   50.0213300000000     ,
 TSAMPLE =   90.4891660000000     ,
 TSTATSTART      =   76.2100820000000     ,
 TCHECK  =   79.6804110000000     
 /
 &TREES
 LTREES  = F,
 NTREES  =         288,
 CD      =   8.95265000000000     ,
 DEC     =   5.08271600000000     ,
 UD      =   4.79318300000000     ,
 LAD     =   60.2110150000000     ,
 QSTAR   =  0.000000000000000E+000,
 DQDT    =  0.000000000000000E+000,
 LSIZE   =   6.57352000000000     ,
 R_S     =   56.5088590000000     ,
 LTREEDUMP       = T
 /
 &PURIFS
 LPURIF  = F,
 NPURIF  =         268,
 QPU     =  0.000000000000000E+000,
 EPU     =   68.1633270000000     
 /
 &HEATPUMP
 LHEATPUMP       = T,
 LFAN_HP = T,
 NHPPOINTS       =         351,
 Q_DOT_HP        =   53.0834150000000     ,
 QH_DOT_HP       =   49.9013280000000     
 /
 &INFO
 NPROCSINL       =         989,
 JGTOTINL        =         567,
 KMAXIN  =         785,
 DTIN    =   47.3668550000000     ,
 WTOP    =   61.3808510000000     ,
 TOTALREADU      =   910.000000000000     
 /
 &NAMSUBGRID
 LDELTA  = F,
 LMASON  = F,
 CF      =   2.50000000000000     ,
 CN      =  0.760000000000000     ,
 RIGC    =  0.250000000000000     ,
 PRANDTL =  0.333000000000000     ,
 LSMAGORINSKY    = F,
 LVREMAN = T,
 LONEEQN = F,
 C_VREMAN        =  7.000000000000001E-002,
 SG_CS   =  -1.00000000000000     ,
 NMASON  =   2.00000000000000     ,
 LBUOYCORR       = F
 /
