&RUN
iexpnr      = 101
runtime     = 10.
trestart    = 1000
dtmax       = 1
irandom     = 43
randqt      = 2.5e-5
randthl     = 0.001
randu       = 0.01
ladaptive   = .true.
/

&OUTPUT
lfielddump  = .false.
tfielddump  = 4.
fieldvars   = 'u0,v0,w0'
ltdump      = .false.
lydump      = .false.
lytdump     = .false.
lxydump     = .false.
lxytdump    = .false.
tstatsdump  = 4.
tsample     = 2.
/

&DOMAIN
imax       = 64
jtot       = 64
kmax       = 64
xsize      = 64
ysize      = 64
/

&PHYSICS
lbuoyancy  = .true.
ltempeq    = .true.
lmoist     = .true.
ps         = 101500.00
igrw_damp  = 0
/

&DYNAMICS
iadv_mom    =  2
iadv_tke    =  2
iadv_thl    =  2
iadv_qt     =  2
iadv_sv     =  7
ipoiss      =  1
/

&NAMSUBGRID
lvreman     = .true.
/

&BC
wtsurf     =  0.                      
wqsurf     =  0.
thls       =  288.
z0         =  0.01
z0h        =  0.000067
thl_top    =  288.
qt_top     =  0.0
qts        =  0.0 
/

&WALLS
nblocks    = 59
nfcts      = 123                            
iwallmom   = 2                                 
iwalltemp  = 2                        
iwallmoist = 1                                 
/

&DRIVER
idriver      = 1
tdriverstart = 5.
driverjobnr  = 001
dtdriver     = 1.
driverstore  = 6
iplane       = 64
/

&ENERGYBALANCE
lEB        = .true.
lconstW    = .true.
dtEB       = 1.
bldT       = 301.0
wsoil      = 314.0
wgrmax     = 451.0
wwilt      = 172.0
wfc        = 314.0
skyLW      = 201.0
GRLAI      = 2.1
rsmin      = 200.0 
/
