&RUN
iexpnr      = 001
runtime     = 5
trestart    = 1000
dtmax       = 1
irandom     = 43
randqt      = 2.5e-5
randthl     = 0.001
randu       = 0.01
ladaptive   = .true.
/

&OUTPUT
lfielddump  = .true.
tfielddump  = 4.
fieldvars   = 'u0,v0,w0'
ltdump      = .true.
lydump      = .true.
lytdump     = .true.
lxydump     = .true.
lxytdump    = .true.
tstatsdump  = 4.
tsample     = 2.
/

&DOMAIN
imax       =  64
jtot       =  64
kmax       =  64
xsize      =  64
ysize      =  64
/

&PHYSICS
lbuoyancy  = .true.
ltempeq    = .true.
lmoist     =  .true.
ps         =  101500.00
igrw_damp  = 0
/

&DYNAMICS
iadv_mom    =  2
iadv_tke    =  2
iadv_thl    =  2
iadv_qt     =  2
iadv_sv     =  7
ipoiss      =  1
/

&NAMSUBGRID
lvreman     = .true.
/

&BC
BCxm       =  1
BCxT       =  1 
BCxq       =  1 
BCxs       =  1 
BCym       =  1 
BCyT       =  1 
BCyq       =  1 
BCys       =  1 
BCtopm     =  1 
BCtopT     =  1 
BCtopq     =  1 
BCtops     =  1 
BCbotm     =  2
BCbotT     =  2 
BCbotq     =  1 
BCbots     =  1
wtsurf     =  0.                      
wqsurf     =  0.
thls       =  288.
z0         =  0.01
z0h        =  0.000067
thl_top    =  288.
qt_top     =  0.0
qts        =  0.0 
/

&WALLS
nblocks    = 59
nfcts      = 123                            
iwallmom   = 2                                 
iwalltemp  = 2                        
iwallmoist = 1                                 
/

&ENERGYBALANCE
lEB        = .true.
lconstW    = .true.
dtEB       = 1.
bldT       = 301.0
wsoil      = 314.0
wgrmax     = 451.0
wwilt      = 172.0
wfc        = 314.0
skyLW      = 201.0
GRLAI      = 2.1
rsmin      = 200.0 
/
