&RUN
runtime = 5.
/

&OUTPUT
tfielddump = 4.
/