 &RUN
 IEXPNR  =         760,
 LWARMSTART      = F,
 LSTRATSTART     = F,
 STARTFILE       = file_meUe0x.dat                                                                           ,
 RUNTIME =  0.985517000000000     ,
 DTMAX   =   65.9532700000000     ,
 TRESTART        =   56.9392930000000     ,
 LADAPTIVE       = F,
 IRANDOM =         188,
 RANDU   =   5.70589300000000     ,
 RANDTHL =   8.45781200000000     ,
 RANDQT  =   30.8824770000000     ,
 KRAND   =         792,
 COURANT =   1.31543500000000     ,
 DIFFNR  =   85.1694400000000     ,
 AUTHOR  = 1CB69kcS                                                                        ,
 LIBM    = F,
 LLES    = F,
 LPER2INOUT      = F,
 LWALLDIST       = F,
 LREADMEAN       = F,
 NPROCX  =           1,
 NPROCY  =           1,
 LRANDOMIZE      = T,
 RUNMODE =        1001,
 LJSON_INPUT     = T
 /
 &DOMAIN
 ITOT    =          16,
 JTOT    =          16,
 KTOT    =          32,
 XLEN    =   100.000000000000     ,
 YLEN    =   100.000000000000     ,
 XLAT    =   7.69305000000000     ,
 XLON    =   161.546858000000     ,
 XDAY    =   145.983687000000     ,
 XTIME   =   7.37728500000000     ,
 KSP     =         515
 /
 &PHYSICS
 PS      =   78.8984110000000     ,
 IGRW_DAMP       =           3,
 LMOIST  = F,
 LCORIOL = F,
 LBUOYANCY       = F,
 LTEMPEQ = F,
 LPROFFORC       = T,
 IFIXUINF        =         122,
 LVINF   = F,
 TSCALE  =   28.1182710000000     ,
 DPDX    =   78.9763650000000     ,
 LUOUTFLOWR      = T,
 LVOUTFLOWR      = F,
 LUVOLFLOWR      = T,
 LVVOLFLOWR      = F,
 UFLOWRATE       =   71.3446440000000     ,
 VFLOWRATE       =   23.0346970000000     ,
 LNUDGE  = T,
 LNUDGEVEL       = T,
 TNUDGE  =   28.5570680000000     ,
 NNUDGE  =         889,
 LTIMEDEPSURF    = T,
 NTIMEDEPSURF    =         811,
 LTIMEDEPNUDGE   = F,
 NTIMEDEPNUDGE   =         648,
 LTIMEDEPLW      = T,
 NTIMEDEPLW      =         427,
 LTIMEDEPSW      = F,
 NTIMEDEPSW      =         603
 /
 &DYNAMICS
 LQLNR   = T,
 IPOISS  =           0,
 IADV_MOM        =           1,
 IADV_TKE        =           7,
 IADV_THL        =           1,
 IADV_QT =           1,
 IADV_SV = 30*7, 70*1
 /
 &BC
 BCXM    =         297,
 BCXT    =         242,
 BCXQ    =         675,
 BCXS    =         816,
 BCYM    =         646,
 BCYT    =         856,
 BCYQ    =         210,
 BCYS    =         947,
 BCTOPM  =         929,
 BCTOPT  =         339,
 BCTOPQ  =         832,
 BCTOPS  =         443,
 BCBOTM  =         366,
 BCBOTT  =         690,
 BCBOTQ  =           9,
 BCBOTS  =         206,
 BCTFXM  =   43.9674440000000     ,
 BCTFXP  =   42.0848060000000     ,
 BCTFYM  =   66.0977030000000     ,
 BCTFYP  =   47.6619080000000     ,
 BCTFZ   =   20.8904230000000     ,
 BCQFXM  =   34.6538970000000     ,
 BCQFXP  =   24.2477230000000     ,
 BCQFYM  =   40.3494180000000     ,
 BCQFYP  =   32.9003400000000     ,
 BCQFZ   =   63.6824120000000     ,
 WTTOP   =   87.6629570000000     ,
 THL_TOP =   43.6996900000000     ,
 QT_TOP  =   74.9358910000000     ,
 QTS     =   54.3488180000000     ,
 WSVSURFDUM      = 99*0.000000000000000E+000  ,
 WSVTOPDUM       = 99*0.000000000000000E+000  ,
 WTSURF  =   12.7265970000000     ,
 WQSURF  =   16.0902150000000     ,
 THLS    =   75.9483930000000     ,
 Z0      =   9.34328400000000     ,
 Z0H     =   68.6626320000000     ,
 BCZP    =         230,
 DS      =   73.2843860000000     
 /
 &INLET
 UINF    =   12.5436090000000     ,
 VINF    =   19.7925210000000     ,
 DI      =   70.3436680000000     ,
 DTI     =   49.2432640000000     ,
 INLETAV =   93.0000000000000     ,
 LINLETRA        = F,
 LSTOREPLANE     = T,
 LREADMINL       = T,
 LFIXINLET       = T,
 LFIXUTAUIN      = F,
 LWALLFUNC       = T
 /
 &DRIVER
 IDRIVER =         751,
 TDRIVERSTART    =   86.7319310000000     ,
 DRIVERJOBNR     =         537,
 DTDRIVER        =   30.8270790000000     ,
 DRIVERSTORE     =         565,
 IPLANE  =         755,
 IANGLEDEG       =   44.0000000000000     ,
 LCHUNKREAD      = F,
 CHUNKREAD_SIZE  =         937
 /
 &WALLS
 NBLOCKS =         549,
 NFCTS   =         485,
 IWALLMOM        =         299,
 IWALLTEMP       =         257,
 IWALLMOIST      =         183,
 IWALLSCAL       =         342,
 NSOLPTS_U       =         897,
 NSOLPTS_V       =         367,
 NSOLPTS_W       =         745,
 NSOLPTS_C       =         926,
 NBNDPTS_U       =         816,
 NBNDPTS_V       =          43,
 NBNDPTS_W       =         168,
 NBNDPTS_C       =         309,
 NFCTSECS_U      =         565,
 NFCTSECS_V      =         721,
 NFCTSECS_W      =         946,
 NFCTSECS_C      =         633,
 LBOTTOM = T,
 LNOREC  = F,
 PRANDTLTURB     =   98.2132670000000     ,
 FKAR    =   12.0042360000000     ,
 LWRITEFAC       = T,
 DTFAC   =   79.2886440000000     
 /
 &ENERGYBALANCE
 LEB     = T,
 LWRITEEBFILES   = T,
 LPERIODICEBCORR = T,
 SINKBASE        =         726,
 LCONSTW = T,
 DTEB    =   39.1390010000000     ,
 BLDT    =   96.2737490000000     ,
 FLRT    =   84.0603000000000     ,
 WSOIL   =   91.3077790000000     ,
 WGRMAX  =   77.6740320000000     ,
 WWILT   =   7.46349000000000     ,
 WFC     =   51.6127910000000     ,
 SKYLW   =   42.1994660000000     ,
 GRLAI   =   87.7313530000000     ,
 RSMIN   =   14.6995310000000     ,
 NFACLYRS        =          17,
 LFACTLYRS       = T,
 LVFSPARSE       = F,
 NNZ     =          69,
 FRACTION        =   86.0869080000000     
 /
 &SCALARS
 LREADSCAL       = T,
 LSCASRC = F,
 LSCASRCL        = T,
 LSCASRCR        = F,
 NSV     =          30,
 NSCASRC =         581,
 NSCASRCL        =         730
 /
 &CHEMISTRY
 LCHEM   = T,
 K1      =   33.5870250000000     ,
 JNO2    =   955.000000000000     
 /
 &OUTPUT
 LFIELDDUMP      = F,
 TFIELDDUMP      =   23.7285070000000     ,
 FIELDVARS       = qLMoBmom                                          ,
 LTDUMP  = T,
 LYDUMP  = T,
 LYTDUMP = T,
 LXYDUMP = F,
 LXYTDUMP        = T,
 LMINTDUMP       = F,
 LTKEDUMP        = F,
 SLICEVARS       = fRTzFn18                                          ,
 LKSLICEDUMP     = T,
 KSLICE  =         302,
 LISLICEDUMP     = T,
 ISLICE  =         548,
 LJSLICEDUMP     = T,
 JSLICE  =         274,
 TSTATSDUMP      =   90.5317940000000     ,
 TSAMPLE =   87.1104340000000     ,
 TSTATSTART      =   48.2738330000000     ,
 TCHECK  =   57.3841480000000     
 /
 &TREES
 LTREES  = T,
 NTREES  =         263,
 CD      =   94.0161840000000     ,
 DEC     =   51.4546330000000     ,
 UD      =   54.1827330000000     ,
 LAD     =   31.8042130000000     ,
 QSTAR   =   2.53309300000000     ,
 DQDT    =  0.494219000000000     ,
 LSIZE   =   66.5363660000000     ,
 R_S     =   22.3493760000000     ,
 LTREEDUMP       = F
 /
 &PURIFS
 LPURIF  = T,
 NPURIF  =         232,
 QPU     =   80.7333220000000     ,
 EPU     =   89.2740640000000     
 /
 &HEATPUMP
 LHEATPUMP       = T,
 LFAN_HP = F,
 NHPPOINTS       =         691,
 Q_DOT_HP        =  0.000000000000000E+000,
 QH_DOT_HP       =  0.000000000000000E+000
 /
 &INFO
 NPROCSINL       =         325,
 JGTOTINL        =         339,
 KMAXIN  =         688,
 DTIN    =   24.4913370000000     ,
 WTOP    =   47.8956390000000     ,
 TOTALREADU      =   924.000000000000     
 /
 &NAMSUBGRID
 LDELTA  = F,
 LMASON  = T,
 CF      =   6.09693100000000     ,
 CN      =   79.4833760000000     ,
 RIGC    =  0.250000000000000     ,
 PRANDTL =  0.333000000000000     ,
 LSMAGORINSKY    = F,
 LVREMAN = F,
 LONEEQN = F,
 C_VREMAN        =   72.1466250000000     ,
 SG_CS   =   89.1220890000000     ,
 NMASON  =   85.5144330000000     ,
 LBUOYCORR       = T
 /
