 &RUN
 IEXPNR  =           1,
 LWARMSTART      = F,
 LSTRATSTART     = F,
 STARTFILE       =                                                                                           ,
 RUNTIME =   21.0000000000000     ,
 DTMAX   =   1.00000000000000     ,
 TRESTART        =   20.0000000000000     ,
 LADAPTIVE       = T,
 IRANDOM =          43,
 RANDU   =  1.000000000000000E-002,
 RANDTHL =  0.000000000000000E+000,
 RANDQT  =  0.000000000000000E+000,
 KRAND   =  2147483647,
 COURANT =  -1.00000000000000     ,
 DIFFNR  =  0.250000000000000     ,
 AUTHOR  =                                                                                 ,
 LIBM    = T,
 LLES    = T,
 LPER2INOUT      = F,
 LWALLDIST       = F,
 LREADMEAN       = F,
 NPROCX  =           4,
 NPROCY  =           2,
 LRANDOMIZE      = T,
 RUNMODE =        1001
 /
 &DOMAIN
 ITOT    =         128,
 JTOT    =         128,
 KTOT    =         128,
 XLEN    =   64.0000000000000     ,
 YLEN    =   64.0000000000000     ,
 XLAT    =   52.0000000000000     ,
 XLON    =  0.000000000000000E+000,
 XDAY    =   1.00000000000000     ,
 XTIME   =  0.000000000000000E+000,
 KSP     =          -1
 /
 &PHYSICS
 PS      =   101325.000000000     ,
 IGRW_DAMP       =           0,
 LMOIST  = F,
 LCORIOL = F,
 LBUOYANCY       = F,
 LTEMPEQ = F,
 LPROFFORC       = F,
 IFIXUINF        =           0,
 LVINF   = F,
 TSCALE  =  0.000000000000000E+000,
 DPDX    =  0.000000000000000E+000,
 LUOUTFLOWR      = F,
 LVOUTFLOWR      = F,
 LUVOLFLOWR      = F,
 LVVOLFLOWR      = F,
 UFLOWRATE       =   1.00000000000000     ,
 VFLOWRATE       =   1.00000000000000     ,
 LNUDGE  = F,
 LNUDGEVEL       = T,
 TNUDGE  =   60.0000000000000     ,
 NNUDGE  =           0,
 LTIMEDEPSURF    = F,
 NTIMEDEPSURF    =           0,
 LTIMEDEPNUDGE   = F,
 NTIMEDEPNUDGE   =           0,
 LTIMEDEPLW      = F,
 NTIMEDEPLW      =           0,
 LTIMEDEPSW      = F,
 NTIMEDEPSW      =           0
 /
 &DYNAMICS
 LQLNR   = F,
 IPOISS  =           0,
 IADV_MOM        =           2,
 IADV_TKE        =          -1,
 IADV_THL        =          -1,
 IADV_QT =          -1,
 IADV_SV = 100*-1
 /
 &BC
 BCXM    =           1,
 BCXT    =           1,
 BCXQ    =           1,
 BCXS    =           1,
 BCYM    =           1,
 BCYT    =           1,
 BCYQ    =           1,
 BCYS    =           1,
 BCTOPM  =           1,
 BCTOPT  =           1,
 BCTOPQ  =           1,
 BCTOPS  =           1,
 BCBOTM  =           2,
 BCBOTT  =           1,
 BCBOTQ  =           1,
 BCBOTS  =           1,
 BCTFXM  =  0.000000000000000E+000,
 BCTFXP  =  0.000000000000000E+000,
 BCTFYM  =  0.000000000000000E+000,
 BCTFYP  =  0.000000000000000E+000,
 BCTFZ   =  0.000000000000000E+000,
 BCQFXM  =  0.000000000000000E+000,
 BCQFXP  =  0.000000000000000E+000,
 BCQFYM  =  0.000000000000000E+000,
 BCQFYP  =  0.000000000000000E+000,
 BCQFZ   =  0.000000000000000E+000,
 WTTOP   =  0.000000000000000E+000,
 THL_TOP =  -1.00000000000000     ,
 QT_TOP  =  -1.00000000000000     ,
 QTS     =  -1.00000000000000     ,
 WSVSURFDUM      = 99*0.000000000000000E+000  ,
 WSVTOPDUM       = 99*0.000000000000000E+000  ,
 WTSURF  =  -1.00000000000000     ,
 WQSURF  =  -1.00000000000000     ,
 THLS    =  -1.00000000000000     ,
 Z0      =  -1.00000000000000     ,
 Z0H     =  -1.00000000000000     ,
 BCZP    =           1,
 DS      =  0.000000000000000E+000
 /
 &INLET
 UINF    =  0.000000000000000E+000,
 VINF    =  0.000000000000000E+000,
 DI      =  9.000000000000000E-002,
 DTI     =  0.000000000000000E+000,
 INLETAV =  0.000000000000000E+000,
 LINLETRA        = F,
 LSTOREPLANE     = F,
 LREADMINL       = F,
 LFIXINLET       = F,
 LFIXUTAUIN      = F,
 LWALLFUNC       = T
 /
 &DRIVER
 IDRIVER =           0,
 TDRIVERSTART    =  0.000000000000000E+000,
 DRIVERJOBNR     =           0,
 DTDRIVER        =  0.100000000000000     ,
 DRIVERSTORE     =           0,
 IPLANE  =           0,
 IANGLEDEG       =  0.000000000000000E+000,
 LCHUNKREAD      = F,
 CHUNKREAD_SIZE  =         100
 /
 &WALLS
 NBLOCKS =           0,
 NFCTS   =         128,
 IWALLMOM        =           2,
 IWALLTEMP       =           1,
 IWALLMOIST      =           1,
 IWALLSCAL       =           1,
 NSOLPTS_U       =           0,
 NSOLPTS_V       =           0,
 NSOLPTS_W       =       16384,
 NSOLPTS_C       =           0,
 NBNDPTS_U       =       16384,
 NBNDPTS_V       =       16384,
 NBNDPTS_W       =       16384,
 NBNDPTS_C       =       16384,
 NFCTSECS_U      =       17788,
 NFCTSECS_V      =       17788,
 NFCTSECS_W      =           0,
 NFCTSECS_C      =       16896,
 LBOTTOM = F,
 LNOREC  = F,
 PRANDTLTURB     =  0.710000000000000     ,
 FKAR    =  0.410000000000000     ,
 LWRITEFAC       = F,
 DTFAC   =   10.0000000000000     
 /
 &ENERGYBALANCE
 LEB     = F,
 LWRITEEBFILES   = F,
 LPERIODICEBCORR = F,
 SINKBASE        =           0,
 LCONSTW = F,
 DTEB    =   10.0000000000000     ,
 BLDT    =  0.000000000000000E+000,
 FLRT    =  0.000000000000000E+000,
 WSOIL   =  0.000000000000000E+000,
 WGRMAX  =   450.000000000000     ,
 WWILT   =   171.000000000000     ,
 WFC     =   313.000000000000     ,
 SKYLW   =  0.000000000000000E+000,
 GRLAI   =   2.00000000000000     ,
 RSMIN   =   110.000000000000     ,
 NFACLYRS        =           3,
 LFACTLYRS       = F,
 LVFSPARSE       = F,
 NNZ     =           0,
 FRACTION        =   1.00000000000000     
 /
 &SCALARS
 LREADSCAL       = F,
 LSCASRC = F,
 LSCASRCL        = F,
 LSCASRCR        = F,
 NSV     =           0,
 NSCASRC =           0,
 NSCASRCL        =           0
 /
 &CHEMISTRY
 LCHEM   = F,
 K1      =  0.000000000000000E+000,
 JNO2    =  0.000000000000000E+000
 /
 &OUTPUT
 LFIELDDUMP      = T,
 TFIELDDUMP      =   5.00000000000000     ,
 FIELDVARS       = u0,v0,w0                                          ,
 LTDUMP  = T,
 LYDUMP  = F,
 LYTDUMP = F,
 LXYDUMP = F,
 LXYTDUMP        = T,
 LMINTDUMP       = F,
 LTKEDUMP        = F,
 SLICEVARS       =                                                   ,
 LKSLICEDUMP     = F,
 KSLICE  =           1,
 LISLICEDUMP     = F,
 ISLICE  =           1,
 LJSLICEDUMP     = F,
 JSLICE  =           1,
 TSTATSDUMP      =   10.0000000000000     ,
 TSAMPLE =   1.00000000000000     ,
 TSTATSTART      =  0.000000000000000E+000,
 TCHECK  =   1.00000000000000     
 /
 &TREES
 LTREES  = F,
 NTREES  =           0,
 CD      =  0.000000000000000E+000,
 DEC     =  0.000000000000000E+000,
 UD      =  0.000000000000000E+000,
 LAD     =  0.000000000000000E+000,
 QSTAR   =  0.000000000000000E+000,
 DQDT    =  0.000000000000000E+000,
 LSIZE   =  0.000000000000000E+000,
 R_S     =  0.000000000000000E+000,
 LTREEDUMP       = F
 /
 &PURIFS
 LPURIF  = F,
 NPURIF  =           0,
 QPU     =  0.000000000000000E+000,
 EPU     =  0.000000000000000E+000
 /
 &HEATPUMP
 LHEATPUMP       = F,
 LFAN_HP = T,
 NHPPOINTS       =           0,
 Q_DOT_HP        =  0.000000000000000E+000,
 QH_DOT_HP       =  0.000000000000000E+000
 /
 &INFO
 NPROCSINL       =           0,
 JGTOTINL        =           0,
 KMAXIN  =           0,
 DTIN    =  0.000000000000000E+000,
 WTOP    =  0.000000000000000E+000,
 TOTALREADU      =  0.000000000000000E+000
 /
 &NAMSUBGRID
 LDELTA  = F,
 LMASON  = F,
 CF      =   2.50000000000000     ,
 CN      =  0.760000000000000     ,
 RIGC    =  0.250000000000000     ,
 PRANDTL =  0.333000000000000     ,
 LSMAGORINSKY    = F,
 LVREMAN = T,
 LONEEQN = F,
 C_VREMAN        =  7.000000000000001E-002,
 SG_CS   =  -1.00000000000000     ,
 NMASON  =   2.00000000000000     ,
 LBUOYCORR       = F
 /
